<routes xmlns:xsi="http://www.w3.org/2001/XMLSchema-instance" xsi:noNamespaceSchemaLocation="http://sumo.dlr.de/xsd/routes_file.xsd">
    <vType id="uamtaxi" vClass="taxi" guiShape="aircraft" personCapacity="4" maxSpeed="50.0" emissionClass="Energy/unknown"><param key="device.taxi.stands-rerouter" value="uam_parking_rerouter" /><param key="has.taxi.device" value="true" /><param key="parking.absfreespace.weight" value="0" /><param key="parking.distanceto.weight" value="10" /><param key="parking.timeto.weight" value="0" /><param key="parking.relfreespace.weight" value="100" /><param key="device.taxi.pickUpDuration" value="60" /><param key="device.taxi.dropOffDuration" value="60" /></vType><person id="0" depart="0.00">
        <walk edges="26339467#1 26339467#2 26339464#1 -26339464#0 -26339463#9 201933879#4 201933879#5 -201933879#6 -201933878#0 201933878#1 24499968#0 -24499968#1 -24499968#2 -51244813#8 -40623117#0 151167756#0 151167756#1 26334132#0 -817666078#4 -817666078#5 817666078#6 817666078#7 816785932#3 816785931#0 -103686111#1 -103686111#0 -27825205#2 -27825205#1 27825205#1 103686114 103687099#0 103687099#1 32923867#0 32923867#1 32923867#2 -32923867#4 -379723624#1 28418763 233673423 88298222 308015556 308015538 308015551#1 145069386#2 145069386#3 145069374 32201042 145069294#2 145069294#1 145069294#0 -32201172#0 -32201172#1 -145069357 29002248#1 29002248#0 29002246 42517570 300750369#2 140357892#1 140357892#0 145069320#1 145069320#0 145069313#0 145069313#1 145069313#2 -103512667#2 -103512667#0 -145069347#1 -145069347#0" />
    </person>
    <person id="2" depart="2.00">
        <walk edges="306431420 201143840 137132998 22724699#12 22724699#11 22724699#10 22724699#9 22724699#8 -40888356#0 173203448#1 173203448#0 173203441#2 173203424#2 173203442 173203456#0 173203413#4 -173203413#5 -173203413#7 gneE66 176550249#6 -201238718#1 201238718#0 315392062#4 315392062#3 315392062#2 315392062#1 315392062#0 24693977#1 24693977#0 27830327 172488499#0 172488499#1 172488499#2 203321215 213328575#1 213328575#0 216187650#1 216187650#0 389840420#1 389840420#2 389840420#3 216187653 216187666 816133986#1 29238184#0 29238184#1 51856492#0 51856492#1 -29027839#0 -29027839#1 301066468#3 32021030 28232068#1 227120617#0 -11014139#1 -24991573 24991571 64464405 25114091 -64464377#1 -64464377#2 28269333#0 28269333#1 25304758 64464381#1 -32199969#0 -164051410#1 -gneE4 42745460 42745461#1 54154921#0 54154921#2 54154921#3 30482638#0 30482638#1 30482638#2 30482638#3 -30482638#4 669004437#0 669004437#1 -153692841#4 153692841#5 153692841#6 -25573260#1 25573260#0 -25640157#0 -25640375#0 -25640145#0 -25640145#1 -25640145#2 25640145#3 25640145#4 25640145#5 28114348 28114295#1" />
    </person>
    <person id="3" depart="3.00">
        <walk edges="57401080#0 57401076 -15066337#1 -15066337#0 391029011#0 391029011#1 391029011#2 391029011#3 391208992#0 391208992#1 25544013#0 25544013#1 25544013#2 25544013#3 25544013#4 25544013#5 25544013#6 25544013#8 25544013#10 25544013#11 71809618#3 -71809618#4 -71809618#5 -207091116#0 -10597454#1 10597454#2 39444747 -201078447#0 26591107#0 26591107#1 202164593 359550720 26591110 26591108 28269862 591899018#1 -203976003#0 32530113#7 32530113#6 32530113#5 32530113#3 32530113#2 -32530113#1 -32530113#0 -390842192#4 -390842192#3 390842192#2 -390842191#0 -390842191#1 -22486112#0 -22486112#1 -22486112#2 -22486112#3" />
    </person>
    <person id="4" depart="4.00">
        <walk edges="172503793#2 172503788#0 129994373#6 129994373#7 129994373#8 129994373#9 129994373#10 129994373#11 129994373#12 129994373#13 -26471752#1 -32923867#4 -379723624#1 28418763 233673423 718481103#3 718481103#2 718481103#1 145069379#1 145069379#0 145069354#1 145069354#0 -145069335#2 156817407#1 145069377#1 51856496#2 51856496#3 51856496#4 51856496#5 51856496#6 51856496#7 51856496#8 51856496#9 51856496#10 33102490#0 33102490#1 137685135 204388144#0 213328593#6 213328593#5 -32061928#2 -32061928#4 815412589#10 815412589#9 815412589#8 815412589#7 216187650#0 216187650#1 213328575#0 213328575#1 203321215 172488499#2 172488499#1 172488499#0 27830327 24693977#0 24693977#1 315392062#0 315392062#1 315392062#2 315392062#3 315392062#4 201238718#0 -201238718#1 176550249#6 gneE66 -173203413#7 -173203413#5 173203413#4 173203456#0 173203442 173203424#2 173203441#2 173203448#0 173203448#1 -40888356#0 22724699#8 22724699#9 22724699#10 22724699#11 22724699#12 137132998 201143840 201234440 -379510292 -379520414#1 -379520414#0 28319300#7 28319300#6 137133009#0 137133993#0 137133993#1 137133993#2 -137246372#0 354695914#6 224892361#2 224892361#1 224892361#0 224892365#2 224892365#3 224892365#4 176550277#9 176550277#10 219679962#0 219679962#1 137672877#1 137672877#2 98323027#0 806941700#0 806941701 77414799 77414793#1 77414793#0 -148351766 -220013328 -139429268 772913614 125002614#1 125002614#0 -125002604#0 -125002604#1 320733906#0 320733906#2 148527679#0 -148527679#1" />
    </person>
    <person id="5" depart="5.00">
        <walk edges="-320733905#2 -148527691#9 -148527691#8 -148527691#7 -148527691#6 -148527691#5 -148527691#4 -148527691#3 -148527691#2 148527691#1 -307562643#2 307562643#3 266561178#0 393420116#1 393420116#3 -393420116#4 393420116#5 393420116#6 -393420116#7 -24754837#0 -24754837#1 -24754837#2 -24754837#3 -24754837#4 -24754837#5 -24754837#6 -24754837#7 -24754837#8 302879118#2 302879118#3 -24754881#7 -24754881#6 -24754881#5 -24754881#4 -24754881#3 -24754881#2 -24754881#1 101430663#1 101430663#2 101430663#3 213286575#0 213286575#1 213286575#2 213286575#3 213286575#4 213286575#5 215335391#0 -23623780#0 -23623780#1 27998310#5 213259541 213259547#1 147042371 147042383#4 147042383#3 213259549#1" />
    </person>
    <person id="6" depart="6.00">
        <walk edges="-146973236#11 146973236#10 -146973236#9 -146973236#8 -146973236#7 -146973236#5 -146973236#4 146973236#3 146973236#2 146973236#1 146973236#0 54154969#3 54154969#2 54154969#1 54154969#0 -54154971 -40059576#1 -40059576#0 -202070435#14 -202070435#13 -202070435#12 -202070435#11 202070435#10 -202070435#9 -202070435#8 -202070435#7 -202070435#6 -202070435#5 -202070435#4 202070435#3 -202070435#2 -202070435#1 -201789798#1 -201789798#0 -201789799#2 -151167720#0 -151167720#1 -25596851#4 -25596851#5 -25596851#6 149045267#0 149045267#1 149045267#2 149045267#3 -149045269#0 -149045269#1 -149045269#3 -gneE23 202070429#13 202070429#12.80 -202070429#12.49 28132813 -175761127#11 -175761127#12 175761127#13 28132836#3 28132836#4 25573267#0 175761129#2 175761129#1 175761129#0 202070427#3 -33280103#0 -71900674#0 -71900674#1 25895864#0 25895864#1 26176223#0 26176227#0 4942575#1 27761238#7 27781947#3 216708291#1 216708290#0 221864072#1 221864072#0 32555292 25363750#2 25363750#3 25363750#4 205141816 29205272#1 -29205272#2 -29205272#3 -29205272#4" />
    </person>
    <person id="7" depart="7.00">
        <walk edges="26489615#6 28269116#2 28269116#1 28269116#0 213350776#1 -51856495#1 -29458096#1 820121399#0 820121399#1 -104236369 -108310251 -108310252 -108310250 -32924041#0 -32924041#1 -32924041#2 -32924041#3 -29119898 820121405#1 24692178#0 24692178#1 24754968#0 24754968#1 129714278#4 129714278#3 129714278#2 24754968#5 24693681 -300750369#1 -300750369#2 42517570 29002246 29002248#0 29002248#1 -145069357 -32201172#1 -32201172#0 145069294#0 145069294#1 145069294#2 32201042 145069374 145069386#3 145069386#2 308015551#1 308015538 308015556 88298222 233673423 28418763 -379723624#1 -32923867#4 32923867#2 32923867#1 32923867#0 103687099#1 103687099#0 103686114 27825205#1 27893434#3 -27893434#2 -27893434#1 -27893434#0 20975948#0 20975948#1 20975943#0 -20975943#1 -20975943#2 20975943#3 20975943#4 20975954#1 816438821#1 30482619 -205182378#8 -205182378#7 -205182378#6 -205182378#5 -205182378#4 -205182378#3 -205182378#2 -205182378#1 -205182378#0 -32530108#5 -32530108#4 32530108#3 32530108#2 -32530108#1 -32530108#0 -390842192#4 -390842192#3 -390842192#2 -201286890#12 201286890#11 201286890#10 23202186#4" />
    </person>
    <person id="8" depart="8.00">
        <walk edges="-32140444#3 39861292#3 39861292#2 39861292#1 26173277 gneE284 25363750#7 25363750#6 25363750#5 25363750#4 25363750#3 25363750#2 25363750#1 25363750#0 -29205273#1 -29205273#0 -23009600#2 -23009600#1 31342351#1 274823622#0 274823622#1 274823622#3 274823622#4 274823622#5 -274823622#6 -274823622#9 -274823622#10 137463478#3 137463478#2 137463478#1.104 -137463478#1.16 25796398#0 25796398#1 31894763#0 137463475#0 137463475#1 137463475#2 116765457#1 23009002#0.132 23009002#0 32199969#1 64464381#1 25304758 28269333#1 28269333#0 64464377#2 79226043#3 79226043#2 79226043#1 79226043#0 25009942#5 433809235 25179027#5 25179027#4 25179027#3 25179027#2 25179027#1 25179027#0 gneE146 181223449#6 -24692391#2 24692391#1 24692391#0 434713632 648501789 648501786#0 648501792#9 648501792#8 648501792#7 648501792#6 648501792#5 648501792#4 648501792#3 648501792#2 648501792#1 648501792#0 129714278#4 129714278#3 129714278#2 24754968#5 24693681 -300750369#1 140357892#1 32226207 24693801 145069325#2 145069384 25138114#3 25138114#2 25138114#1 25138114#0 25149536#2 25149536#1 25149494#1 25148688#0" />
    </person>
    <person id="9" depart="9.00">
        <walk edges="36792019 -36792021#1 -36792021#2 -37193861#0 37193865 37193859#8 -36792015#0 -36792015#1 -146973236#8 -146973236#7 -146973236#5 -146973236#4 146973236#3 146973236#2 146973236#1 146973236#0 54154969#3 54154969#2 54154969#1 54154969#0 -54154971 -40059576#1 -40059576#0 -202070435#14 -202070435#13 -202070435#12 -202070435#11 202070435#10 -202070435#9 -202070435#8 -202070435#7 -202070435#6 -202070435#5 -202070435#4 202070435#3 -202070435#2 -202070435#1 -201789798#1 -201789798#0 201789799#2 201789799#1 201789799#0 30482638#14 30482638#13 -25573246#0 -25573254#0 -25573254#1 -25573254#2 -25573254#3 -25573260#1 153692841#6 153692841#5 -153692841#4 669004437#1 669004437#0 -30482638#4 30482638#3 30482638#2 30482638#1 30482638#0 54154921#3 54154921#2 54154921#0 42745461#1 42745460 -gneE4 -164051410#1 -32199969#0 64464381#1 25304758 28269333#1 28269333#0 64464377#2 79226043#3 79226043#2 79226043#1 79226043#0 25009942#5 433809235 25179027#5 25179027#4 25179027#3 25179027#2 25179027#1 25179027#0 gneE146 26973015 -gneE112 gneE114.33 gneE121 32350852#3 32350852#1.78 32350852#1 32350852#0 749560274#1 825445496#1.47 825445496#1 825445496#0 28418764 542617943 389831364#1.51 389831364#1 308015539#0 308015558#1 308015557#0 308015561#1 308015561#2 145069379#1 718481103#1 718481103#2 718481103#3 233673423 28418763 -379723624#1 -32923867#4 32923867#2 32923867#1 32923867#0 103687099#1 103687099#0 103686114 27825205#1 -27825205#1 -27825205#2 -103686111#0 -103686111#1 816785931#0 816785932#3 817666078#7 817666078#6 -817666078#5 -817666078#4 26334132#0 151167756#1 151167756#0 -40623117#0 -51244813#8 -24499968#2 -24499968#1 24499968#0 201933878#1 -201933878#0 -201933879#6 201933879#5 -201933879#4 -201933879#3 -201933879#2 26339465 -26339468#0 -26339468#1 -26339468#2 26814848#2 26814848#1 26814848#0 391029005#1 26339476#1 200949176#0 -116765451#1" />
    </person>
    <person id="10" depart="10.00">
        <walk edges="359550731#0 202164593 359550720 26591110 26591108 28269862 -591899018#0 -591899020#3 -591899020#2 -591899020#1 -591899020#0 -21224499#1 21224499#0 -205182378#0 -205182378#1 -205182378#2 -205182378#3 -205182378#4 -205182378#5 -205182378#6 -205182378#7 -205182378#8 30482619 816438821#1 20975954#1 20975943#4 20975943#3 -20975943#2 -20975943#1 20975943#0 20975948#1 20975948#0 -27893434#0 -27893434#1 -27893434#2 27893434#3 27825205#1 103686114 103687099#0 103687099#1 32923867#0 32923867#1 32923867#2 -32923867#4 -379723624#1 28418763 233673423 88298222 308015556 308015538 308015551#1 145069386#2 145069386#3 145069374 32201042 145069294#2 145069294#1 145069294#0 -32201172#0 -32201172#1 -145069357 29002248#1 29002248#0 29002246 42517570 -300750369#2 -300750369#1 24693681 24754968#5 129714278#2 129714278#3 129714278#4 648501792#0 648501792#1 648501792#2 648501792#3 32259254 145069358 -110778890 -108210904 32020916#0 32020916#1 77912233 107671228 29027840 32200414#0 24991525#0 24991525#1 24991525#2 26810144#1 433809248 103671273#1 25000197#0 25000598 229555427#0 -229555427#1 -148050448#0 -148050448#1 -306431310#0 -306431310#1 -148050455#0 -148050455#1 30399663#1 30399663#0 gneE59.16 gneE59 29119850.76 29119850 29119849#1 29119849#0 4942407 765244915 54858973#0 25902499.18 25902499 gneE64 gneE63 30399316#4 -30399316#5 -51745097#0.38 -51745097#0 51745097#0.53 51745097#0 139189165#1 139189165#0 -124194339#1 124194339#0 29205273#9 29205273#8" />
    </person>
    <person id="11" depart="11.00">
        <walk edges="129379929#1 181222207 201950263#0 201950259#6 201950259#5 201950259#3 201950259#2 201950259#0 -26677213#6 26677213#5 26677213#4 -26677213#3 -26677213#2 -26677213#1 -26677213#0 136436468#1 -136436468#2 201201945#2 201201945#1 201238718#1.33 201238718#1 201238718#0 315392062#4 315392062#3 315392062#2 315392062#1 315392062#0 24693977#1 24693977#0 27830327 172488499#0 172488499#1 172488499#2 203321215 213328575#1 213328575#0 216187650#1 216187650#0 389840420#1 389840420#2 389840420#3 216187653 216187666 816133986#1 29238184#0 29238184#1 51856492#0 51856492#1 -29027839#0 -29027839#1 301066468#3 32021030 28232068#1 227120617#0 -11014139#1 -24991573 24991571 64464405 25114091 -64464377#1 -64464377#2 28269333#0 28269333#1 25304758 64464381#1 32199969#1 23009002#0 23009002#0.132 110435734 60066780 -25640098#0 -25640093#5 -25640093#4 -153692837#1 28132836#0 28132836#1 28132836#2 -175761127#13 -175761127#12 -175761127#11 175761127#9 -175761127#7 175761127#6 175761127#5 175761127#4 -175761127#3 175761127#2 -25895943#0 -25895943#1 -25895943#2" />
    </person>
    <person id="12" depart="12.00">
        <walk edges="815412596 815412592#0 203132184#0 203132184#1 203132184#2 203132184#3 203132184#4 203132184#5 203132184#7 -306726647#0 306726647#1 -29119851#0 -29119851#1 -32021408 138002149#1 138002149#2 -138002149#3 137246371#1 137246371#2 gneE59.16 gneE59 29119850.76 29119850 29119849#1 29119849#0 4942407 765244915 54858973#0 25902499.18 25902499 gneE64 gneE63 30399316#4 -30399316#5 -51745097#0.38 -51745097#0 51745097#1 144655546#0 -144655546#1 -144655546#2 39860602 39860603 28763451#1 -28763451#2 28763155#0 28763155#1 28763155#2 32510133 -39227066#0 -39227066#1 -403879902#0 403879902#1 39227557 -39918460 -41522169#0 gneE277 gneE278 gneE280 25708163#4 25708163#3 25708163#2 127076898" />
    </person>
    <person id="13" depart="13.00">
        <walk edges="-226055648#5 -226055648#4 -229555427#1 -148050448#0 -148050448#1 -306431310#0 -306431310#1 -148050455#0 -148050455#1 30399663#1 30399663#0 gneE59.16 gneE59 29119850.76 29119850 29119849#1 29119849#0 4942407 765244915 54858973#0 25902499.18 25902499 gneE64 gneE63 30399316#4 -30399316#5 -51745097#0.38 -51745097#0 51745097#1 144655546#0 -144655546#1 -144655546#2 39860602 39860603 28763451#1 -28763451#2 28763155#0 28763155#1 28763155#2 32510133 -39227066#0 -39227066#1 -403879902#0 403879902#1 39227557 -39918460 -41522169#0 gneE277 gneE278 gneE280 25708163#5 -23128564#1" />
    </person>
    <person id="14" depart="14.00">
        <walk edges="40888354#0 40888354#1 40888354#2 40888354#3 40888354#4 53396619#3 -53396619#4 -201950247#4 -201950247#5 -201950247#6 201950247#7 -201950247#9 315358242#3 4942376#1 25665446#2 25665446#3 -25665446#4 -25665446#5 -25665446#6 54169280#3 54169280#2 54169280#1 54169280#0 30399663#1 30399663#0 gneE59.16 gneE59 29119850.76 29119850 29119849#1 29119849#0 4942407 765244915 54858973#0 25902499.18 25902499 gneE64 gneE63 30399316#4 -30399316#5 -51745097#0.38 -51745097#0 51745097#1 144655546#0 -144655546#1 -144655546#2 39860602 39860603 28763451#1 -28763451#2 41522167#0 41522167#1 29459180#0 29459180#1 32140444#0 32140444#2 32140444#3 32140444#4 32140444#5 25377287#0 25377287#2" />
    </person>
    <person id="15" depart="15.00">
        <walk edges="359550762#1 359550730#0 359550730#1 462314992 591726488 462314993#0 462314993#1 -591899020#2 -591899020#1 -591899020#0 -21224499#1 21224499#0 -205182378#0 -205182378#1 -205182378#2 -205182378#3 -205182378#4 -205182378#5 -205182378#6 -205182378#7 -205182378#8 30482619 816438821#1 20975954#1 20975943#4 20975943#3 -20975943#2 -20975943#1 20975943#0 20975948#1 20975948#0 -27893434#0 -27893434#1 -27893434#2 27893434#3 27825205#1 103686114 103687099#0 103687099#1 32923867#0 32923867#1 32923867#2 -32923867#4 -379723624#1 28418763 233673423 718481103#3 718481103#2 718481103#1 145069379#1 308015561#2 308015561#1 308015557#0 308015558#1 308015539#0 gneE315 125496633#1 125496633#0 32082183 25148693#0 25148693#1 25148693#2 25148693#3 25148693#4 25148693#5 25148693#6 125496618#0 25148676#2 25148676#1 25148646#1 25148646#0 25148616#0 25148983 826594749 gneE111 173169611#1 25149001#1 25149001#2 25149001#3 25149001#4 25149001#5 653473569#0 653473568#1 653473568#0 18813598#9 18813598#8 18813598#7 18813598#6 18813598#5 18813598#4 18813598#3 -18813598#2 -18813598#1 188625534#10 173177789#0 173177789#1 28013879#1 32395588 32395574#1 -23621983 -213286595#0 -213286595#1 -213286595#2 -213286595#3 -213286595#4 -213286595#5 -42674133#0 -23622054#0 -25341073#9 -25341073#10 25341073#10 304151950#2 304151950#1 304151950#0 173172426#9 173172426#8 173172426#7 173172426#6 173172426#5 173172426#4 173172426#3 173172426#2 173172426#1 173172426#0 304151951#2" />
    </person>
    <person id="16" depart="16.00">
        <walk edges="22716069#0 22716069#1 22716069#2 653473569#3 653473569#4 225478192 225478191#2 225478193#0 225559813#1 225559813#2 225478189#1 225478189#0 225478187#1 224656258#0 151348167#0 gneE111 826594749 25148983 25148616#0 25148646#0 25148646#1 25148676#1 25148676#2 125496618#0 25148693#6 25148693#5 25148693#4 25148693#3 25148693#2 25148693#1 25148693#0 32082183 125496633#0 125496633#1 gneE315 389831364#1 389831364#1.51 542617943 28418764 825445496#0" />
    </person>
    <person id="17" depart="17.00">
        <walk edges="145069287#8 -103512667#0 103512671 -33102477 213328593#6 213328593#5 -32061928#2 -32061928#4 815412589#10 815412589#9 815412589#8 815412589#7 216187650#0 216187650#1 213328575#0 213328575#1 203321215 172488499#2 172488499#1 172488499#0 27830327 201089423#1 22716549#1 22716549#2 22716549#3 22716549#4 22716549#5 22716549#6 25267365 25215699#1 -233675413#8 233675413#8" />
    </person>
    <person id="18" depart="18.00">
        <walk edges="391029009#0 391208990 -33280103#7 -33280103#6 -33280103#5 26176222#2 26176222#1 25895864#1 25895864#0 -71900674#1 -71900674#0 -33280103#0 202070427#3 175761129#0 175761129#1 175761129#2 25573267#0 28132836#4 28132836#3 28132836#2 28132836#1 28132836#0 -153692837#1 -153692837#2 -718828186#0 -718828186#1 -718828183#0 -718828183#1 -718828183#2 -25573260#2 -25573260#1 -25573260#0 25640157#0 25640157#1 -25640148#3 25640148#2" />
    </person>
    <person id="19" depart="19.00">
        <walk edges="433809248 26810144#1 24972185#8 24972185#9 -31343367#1 -29027839#2 301066468#3 32021030 28232068#1 227120617#0 -11014139#1 -24991573 24991571 64464405 25114091 -64464377#1 -64464377#2 28269333#0 28269333#1 25304758 64464381#1 -32199969#0 -164051410#1 -gneE4 42745460 42745461#1 54154921#0 54154921#2 54154921#3 30482638#0 30482638#1 30482638#2 30482638#3 25640150 -92026769#12 -92026769#11 -92026769#9 -92026769#8 -92026769#7 -92026769#6 -92026769#5 -92026769#4 -92026769#3 -92026769#2 -92026769#1 32350901#0 -118607487#0 118607487#1 118607487#2 118607487#3 118607487#4 118607487#5 118607487#6 118607487#7 118607487#8 118607487#9 118607487#10 118607487#11 118607487#12 118607487#13 118607487#14 -118607487#15 -118604348#0 -118604348#1 -118607469#0 -118607469#1 -118607469#2 -118607469#3 24895308" />
    </person>
    <person id="21" depart="21.00">
        <walk edges="-329108324#7 -329108324#8 -329108324#9 337345180#1 337345180#2 337345180#3 71787856#0 71787856#1 71787856#2 787971325 -gneE73 -gneE74 -gneE76 gneE79 -67237979#2" />
    </person>
    <person id="22" depart="22.00">
        <walk edges="-205182378#7 -205182378#8 30482619 816438821#1 20975954#1 20975943#4 20975943#3 -20975943#2 -20975943#1 20975943#0 20975948#1 20975948#0 -27893434#0 -27893434#1 -27893434#2 27893434#3 27825205#1 103686114 103687099#0 103687099#1 32923867#0 32923867#1 32923867#2 -32923867#4 -379723624#1 28418763 233673423 718481103#3 718481103#2 718481103#1 145069379#1 308015561#2 308015561#1 308015557#0 308015558#1 308015539#0 389831364#1 389831364#1.51 542617943 28418764 825445496#0 825445496#1 825445496#1.47 749560274#1 32350852#0 32350852#1 32350852#1.78 32350852#3 gneE121 gneE114.33 -gneE112 26973015 gneE146 25179027#0 25179027#1 25179027#2 25179027#3 25179027#4 25179027#5 433809235 25009942#5 79226043#0 79226043#1 79226043#2 79226043#3 64464377#2 28269333#0 28269333#1 25304758 64464381#1 -32199969#0 -164051410#1 -gneE4 42745460 42745461#1 54154921#0 54154921#2 54154921#3 30482638#0 30482638#1 30482638#2 30482638#3 -30482638#4 669004437#0 669004437#1 -153692841#4 153692841#5 153692841#6 -25573260#1 -25573254#3 -25573254#2 -25573254#1 -25573254#0 -25573246#0 30482638#13 30482638#14 201789799#0 201789799#1 201789799#2 -201789798#0 -201789798#1 -202070435#1 -202070435#2 202070435#3 -202070435#4 -202070435#5 -202070435#6 -202070435#7 -202070435#8 -202070435#9 202070435#10 -202070435#11 -202070435#12 -202070435#13 -202070435#14 -40059576#0 -40059576#1 -54154971 54154969#0 54154969#1 54154969#2 54154969#3 146973236#0 -171007013#0 -171007013#1 -35064464#0 -35064464#1 -35064464#2" />
    </person>
    <person id="23" depart="23.00">
        <walk edges="-233673410#3 40930495#1 40930495#0 25375417#13 -25543966#3 25543966#4 32787437#0 32787437#1 32787437#2 -32787437#4 -25699357#0 -25699357#1 -25699357#2 -25699357#3 -25699357#4 -174597970#0 -174597970#1 -174597970#2 174597970#3 174597970#4 174597970#5 -174597970#6 -174597970#7 -201933879#0 201933879#1 -201933879#2 -201933879#3 -201933879#4 201933879#5 -201933879#6 -201933878#0 201933878#1 24499968#0 -24499968#1 -24499968#2 -51244813#8 -40623117#0 151167756#0 151167756#1 26334132#0 -817666078#4 -817666078#5 817666078#6 817666078#7 816785932#3 816785931#0 -103686111#1 -103686111#0 -27825205#2 -27825205#1 27825205#1 103686114 103687099#0 103687099#1 32923867#0 32923867#1 32923867#2 -32923867#4 -379723624#1 28418763 233673423 718481103#3 718481103#2 718481103#1 145069379#1 145069379#0 145069354#1 145069354#0 -145069335#2 156817407#1 145069377#1 51856496#2 51856496#3 51856496#4 51856496#5 51856496#6 51856496#7 51856496#8 51856496#9 51856496#10 33102490#0 33102490#1 137685135 204388144#0 213328593#6 213328593#5 -32061928#2 -32061928#4 815412589#10 815412589#9 815412589#8 815412589#7 216187650#0 216187650#1 213328575#0 213328575#1 203321215 172488499#2 172488499#1 172488499#0 27830327 24693977#0 24693977#1 315392062#0 148449854 24634413#3 24634413#2 24634413#1 201201950#3 gneE65 -26677216#5 26677216#4 -26677216#3 -53396619#7" />
    </person>
    <person id="24" depart="24.00">
        <walk edges="26176225#1 -26176225#0 -274823622#3 -274823622#4 -274823622#5 -274823622#6 -274823622#9 -274823622#10 137463478#3 137463478#2 137463478#1.104 -137463478#1.16 25796398#0 25796398#1 31894763#0 137463475#0 137463475#1 137463475#2 116765457#1 23009002#0.132 23009002#0 32199969#1 64464381#1 25304758 28269333#1 28269333#0 64464377#2 79226043#3 79226043#2 79226043#1 79226043#0 25009942#5 433809235 25179027#5 25179027#4 25179027#3 25179027#2 25179027#1 25179027#0 gneE146 26973015 -gneE112 gneE114.33 gneE121 32350852#3 32350852#1.78 32350852#1 32350852#0 749560274#1 825445496#1.47 825445496#1 825445496#0 28418764 542617943 389831364#1.51 389831364#1 308015539#0 308015558#1 308015557#0 308015561#1 308015561#2 145069379#1 718481103#1 718481103#2 718481103#3 233673423 28418763 -379723624#1 -32923867#4 -26471752#1 129994373#13 129994373#12 129994373#11 129994373#10 129994373#9 129994376#0 129994375#4 129994362#2 129994376#4 gneE170 129994374#3 637977438 32700084#0 32700084#1 121110638 26728690#3 26728690#2 26728690#1 26728690#0 164051438#0 26471933 137685146#5 137685146#4 137685146#3 137685146#2" />
    </person>
    <person id="28" depart="28.00">
        <walk edges="-26471752#2 -26471752#1 -32923867#4 -379723624#1 28418763 233673423 718481103#3 718481103#2 718481103#1 145069379#1 308015561#2 308015561#1 308015557#0 308015558#1 308015539#0 gneE315 125496633#1 125496633#0 32082183 25148693#0 25148693#1 25148693#2 25148693#3 25148693#4 25148693#5 25148693#6 125496618#0 25148676#2 25148676#1 25148646#1 25148646#0 25148616#0 25148983 826594749 gneE111 173169611#1 25149001#1 25149001#2 25149001#3 25149001#4 25149001#5 653473569#0 653473568#1 653473568#0 18813598#9 18813598#8 18813598#7 18813598#6 18813598#5 18813598#4 18813598#3 -18813598#2 -18813598#1 188625534#10 173177789#0 173177789#1 28013879#1 32395588 32395574#1 -23621983 -213286595#0 -213286595#1 -213286595#2 -213286595#3 -213286595#4 -213286595#5 -23621940#0 304151945#6" />
    </person>
    <person id="29" depart="29.00">
        <walk edges="-26339463#5 26339463#6 -26339463#7 -26339463#8 -201933879#4 201933879#5 -201933879#6 -201933878#0 201933878#1 24499968#0 -24499968#1 -24499968#2 -51244813#8 -40623117#0 151167756#0 151167756#1 26334132#0 -817666078#4 -817666078#5 817666078#6 817666078#7 816785932#3 816785931#0 -103686111#1 -103686111#0 -27825205#2 -27825205#1 27825205#1 103686114 103687099#0 103687099#1 32923867#0 32923867#1 32923867#2 -32923867#4 -379723624#1 28418763 233673423 88298222 308015556 308015538 308015551#1 145069386#2 145069386#3 145069374 32201042 145069294#2 145069294#1 145069294#0 -32201172#0 -32201172#1 -145069357 29002248#1 29002248#0 29002246 42517570 300750369#2 140357892#1 140357892#0 145069320#1 145069320#0 145069313#0 145069313#1" />
    </person>
    <person id="30" depart="30.00">
        <walk edges="gneE273 28763155#0 -28763451#2 28763451#1 39860603 -39860602 -144655546#2 -144655546#1 144655546#0 51745097#1 -51745097#0 -51745097#0.38 -30399316#5 30399316#4 gneE63 gneE64 25902499 25902499.18 54858973#0 765244915 4942407 29119849#0 29119849#1 29119850 29119850.76 gneE59 gneE59.16 30399663#0 30399663#1 -148050455#1 -148050455#0 -306431310#1 -306431310#0 -148050448#1 -148050448#0 -229555427#1 229555427#0 25000598 25000197#0 103671273#1 433809248 26810144#1 24991525#2 24991525#1 24991525#0 32200414#0 29027840 107671228 77912233 32020916#1 32020916#0 -108210904 -110778890 145069358 32259254 648501792#3 648501792#2 648501792#1 648501792#0 129714278#4 129714278#3 129714278#2 24754968#5 24693681 -300750369#1 -300750369#2 42517570 29002246 29002248#0 29002248#1 -145069357 -32201172#1 -32201172#0 145069294#0 145069294#1 145069294#2 32201042 145069374 145069386#3 145069386#2 308015551#1 308015538 308015556 88298222 233673423 28418763 -379723624#1 -32923867#4 32923867#2 32923867#1 32923867#0 103687099#1 103687099#0 103686114 27825205#1 -27825205#1 -27825205#2 -103686111#0 -103686111#1 816785931#0 816785932#3 817666078#7 817666078#6 -817666078#5 -817666078#4 26334132#0 151167756#1 151167756#0 -40623117#0 -51244813#8 -24499968#2 -24499968#1 24499968#0 201933878#1 -201933878#0 -201933879#6 201933879#5 -201933879#4 -201933879#3 -201933879#2 26339465 -26339468#0 -26339468#1 -26339471#0 -26339471#1 -26339471#2 -26339471#3 26339471#4" />
    </person>
    <person id="31" depart="31.00">
        <walk edges="23622128#2 -23622106#2 -23622106#3 23622106#4 23622106#5 23622106#6 23622106#8 23622106#9 23622106#10 23622106#15 23622106#16 23622106#17 -23622106#18 -23622106#19 -23621955#6 23621955#7 -23622141#2 23622141#0 42517574#0 32395601 28013818#2 28013820 173177789#0 188625534#10 -18813598#1 -18813598#2 18813598#3 18813598#4 18813598#5 18813598#6 18813598#7 18813598#8 18813598#9 653473568#0 653473568#1 653473569#0 25149001#5 25149001#4 25149001#3 25149001#2 25149001#1 173169611#1 gneE111 826594749 25148983 25148616#0 25148646#0 25148646#1 25148676#1 25148676#2 125496618#0 25148693#6 25148693#5 25148693#4 25148693#3 25148693#2 25148693#1 25148693#0 32082183 125496633#0 125496633#1 gneE315 308015539#0 308015558#1 308015557#0 308015561#1 308015561#2 145069379#1 718481103#1 718481103#2 718481103#3 233673423 28418763 -379723624#1 -32923867#4 -26471752#1 -26471752#2 -26471752#3 -26471752#4 26471753#0 26471753#1 32700094#0 32700094#1 32700094#2 32700094#3 32700094#6 28268793#2" />
    </person>
    <person id="32" depart="32.00">
        <walk edges="40059576#0 202070435#14 202070435#13 202070435#12 202070435#11 202070435#10 -202070435#9 -202070435#8 -202070435#7 -202070435#6 -202070435#5 -202070435#4 202070435#3 -202070435#2 -202070435#1 -201789798#1 -201789798#0 -201789799#2 -151167720#0 -151167720#1 -25596851#4 -25596851#5 -25596851#6 149045267#0 149045267#1 149045267#2 149045267#3 -149045269#0 -149045269#1 -149045269#3 -gneE23 202070429#13 202070429#12.80 -202070429#12.49 28132813 -175761127#11 -175761127#12 175761127#13 28132836#3 28132836#4 25573267#0 175761129#2 175761129#1 175761129#0 202070427#3 -33280103#0 -71900674#0 -71900674#1 25895864#0 25895864#1 26176223#0 26176227#0 4942575#1 27761238#7 27761238#6 25616922#8 25616922#7 27782265#0 32555315#0" />
    </person>
    <person id="33" depart="33.00">