<?xml version="1.0" encoding="UTF-8"?>

<!-- generated on 2023-03-21 23:48:16 by Eclipse SUMO duarouter Version 1.16.0
<configuration xmlns:xsi="http://www.w3.org/2001/XMLSchema-instance" xsi:noNamespaceSchemaLocation="http://sumo.dlr.de/xsd/duarouterConfiguration.xsd">

    <input>
        <net-file value="/Users/mk/Local/AP/sumo-se-2022/resources/ingolstadt/simulation/ingolstadt_24h.net.xml.gz"/>
        <route-files value="veh.trips.xml"/>
    </input>

    <output>
        <output-file value="routes.rou.xml"/>
        <alternatives-output value="NUL"/>
    </output>

    <time>
        <begin value="0"/>
        <end value="3600"/>
    </time>

    <report>
        <no-warnings value="true"/>
        <ignore-errors value="true"/>
        <no-step-log value="true"/>
    </report>

</configuration>
-->

<routes xmlns:xsi="http://www.w3.org/2001/XMLSchema-instance" xsi:noNamespaceSchemaLocation="http://sumo.dlr.de/xsd/routes_file.xsd">
    <vehicle id="0" depart="0.00">
        <route edges="20405621#0 -20405621#0 -20266187#1 -20266187#0 -201278209#2 -201278209#0 -201926265#6 -201926265#5 -201926265#4 -201926265#2 -201926265#1 -201926265#0 -23184252#3 -23184252#2 -23184252#1 -23184252#0 -37282688#5 -37282688#4 -37282688#3 -37282688#2 -37282688#1 -37282688#0 -103718186 -201278214#0 -29458645 131118468#0 131118468#0.32 719015101 719015101.12 305390335 201278218#0 201278218#0.62 816287496 815517012 61940356 172515808 61940355 816623824 816623837#0 816623837#1 -816623834#1 816623833#1 816623833#2 816623833#4 124812856#0 124812856#0.30 201956821#1 201956821#1.76 201963537#1 201963537#1.83 104010475#1 104012170 104012169#0 104106813#1 -32124745 -285716192#1 -285716192#0 -32124744 -201089423#2 -201089423#1 24693977#0 24693977#1 315392062#0 315392062#1 315392062#2 315392062#3 315392062#4 201238718#0 201238718#1 201238718#1.33 201201945#1 201201945#2 201201945#3 201201945#4 201201945#5 201201945#7 201201945#8 201201945#9 201201945#10 201201945#11 201089420#0 201089420#1 315358257#0 315358257#2 -315358254#0 -164078536 -201894096#8 -201894096#7 -201894096#5 -201894096#4 129379952#1 129379952#2 129379952#3 129379952#4 129379952#5 129379952#6 129379952#7 129379952#8 -129379952#30 -129379952#29 -129379952#28 -129379952#27 -129379952#26 -129379952#25 -129379952#24"/>
    </vehicle>
    <vehicle id="1" depart="1.00">
        <route edges="-28845095#2 -28845095#0 -28845091#0 130996521#2 -130996521#2 -130996521#1 -379723624#1 -32923867#4 -32923867#2 -32923867#1 -32923867#0 39649533 130996520 816287485 54033673#0 54033673#0.34 719015099 29458645 201278214#0 29458647#0 37282369 354967544#0 354967544#1 816754680 -589179144 -266887589#3 -266887589#2 -266887589#1 -266887589#0 -201926268#1 -266887588#0 -266887593#6 -266887593#4 -266887593#3 -266887593#2 -266887593#1 -266887591 111525330#0 111525330#1 350320331#0 350320331#1 266885723#0 161680739 27453586#0 450094713 450094712 718850689 450094709 450094710 146973225#1 146973225#1.37 146973225#2 146973225#3 233673411#0 233673411#1 201926267#1 201926267#3 233673414#0 233673414#1 233673414#2 233673414#3 233673414#5 233673414#7 233673414#8 305496618#0 305496618#2 305496618#3 -305496616#10 -305496616#9 -305496616#7 -305496616#6 -305496616#5 -305496616#4 -305496616#3 -305496616#2 -305496616#1 -305496616#0 -305496617#1 -26438881#6 -26438881#5 -26438881#4 -26438881#3 -26438881#2"/>
    </vehicle>
    <vehicle id="2" depart="2.00">
        <route edges="26339623#0 -26339623#0 -26814848#0 26339472#0 26339471#4 26339471#5 -266607792#4 -266607792#3 -266607792#2 -266607792#1 -266607792#0 -266607803#2 -266607803#1 -266607804#1 -266607804#0 -32923863#5 -32923863#4 -32923863#3 -32923863#2 -32923863#1 -32923863#0 -31363129#1 -31363129#0 -58295043 151167768 718481092 816287457#0 816287496 815517012 61940356 172515808 61940355 816623824 816623837#0 816623837#1 -816623834#1 816623833#1 816623833#2 816623833#4 124812856#0 124812856#0.30 201956821#1 201956821#1.76 201963537#1 201963537#1.83 104010475#1 104012170 104010393#0 202070434#0 202070434#1 202070434#2 202070434#2.42 -139230366 -233675413#9 -233675413#8 -233675413#7 -233675413#6 -233675413#3 -233675413#2 -233675413#1 -233675413#0 -136728347#4 -136728347#3 -136728347#2 -136728347#1 -136728347#0 -128906555 -201963533#6 -201963533#5 -201963533#4 -201963533#1 -201963533#1.188 -285549250#0 -128361102#1 -128361102#0 128361107#0 128361107#1 128361107#2 128361106 449057056 449057056.9 378946908 128361091 379795371 378946906 378946906.15 449057059 449057052 449057052.11 109483352#0 -201238725#5 -201238725#4 -201238725#3 -201238725#2 -201238725#1 -24754876#12 -24754876#11 -24754876#10 -24754876#9 -24754876#8 -24754876#7 -24754876#5 -24754876#4 25331328#1 25331328#2 25331328#3"/>
    </vehicle>
    <vehicle id="3" depart="3.00">
        <route edges="42674135#0 -42674135#0 -130185484#1 -130185484#0 -29146979#4 -29146979#3 -29146979#2 -29146979#1 130185488#1 130185488#1.32 130185488#2 130185488#3 130185488#4 35926528#0 35926528#1 746700171 128361096 449057052 449057052.11 378946907 379795373 379795373.16 379795369 449057060 449057060.18 35926529 449057056 449057056.9 60931370 213252671#0 213252671#1 128361109#0 128361109#1 128361109#2 201238730 176550249#0 176550249#1 176550249#2 176550249#3 176550249#4 176550249#5 176550249#6 201201953#1 201201953#2 gneE66 -173203413#7 -173203445"/>
    </vehicle>
    <vehicle id="4" depart="4.00">
        <route edges="-700668008 700668007#1 -26766980#1 -26766980#0 23622107#3 23622107#4 23622107#5 23622107#6 23622107#7 23622107#8 25341141#0 25341141#2 164051424 201201936#0 201201936#2 201201936#3 201201936#4 201201936#5 201201936#6 201201936#7 201201936#8 201201936#9 201201936#10 201201936#11 201201936#12 201201940#0 201201940#3 128361093#1 449057060 449057060.18 35926529 449057056 449057056.9 60931370 213252671#0 213252671#1 128361109#0 128361109#1 128361109#2 201238730 176550249#0 176550249#1 176550249#2 176550249#3 176550249#4 176550249#5 176550249#6 201201945#1 201201945#2 -136436468#2"/>
    </vehicle>
    <vehicle id="5" depart="5.00">
        <route edges="-25616922#3 -25616922#1 -25616922#0 -29205273#1 -29205273#0 -23009600#2 -23009600#1 31342350#0 31342350#1 31342350#2 31342350#3 31342350#4 31342350#5 391208990 391029009#0 391029009#0.80 726514452#0 726514452#1 41425835#0 41425835#0.246 151167747#0 151167747#0.13 549032836 39704924 39704922 266507540 266507540.73 266507546 266507536 266507535 266885714 146973156#0 146973156#1 450076615#0 161680739 27453586#0 450094713 450094712 718850689 450094709 450094710 146973225#1 146973225#1.37 146973225#2 146973225#3 233673411#0 233673411#1 146973214#1 146973214#2 146973214#6 146973214#7 146973214#9 146973214#10 146973214#11"/>
    </vehicle>
    <vehicle id="6" depart="6.00">
        <route edges="-129379938 -129379930#2 -129379930#0 -201894096#1 -201894096#0 -202857378 -220012723 164078531#0 164078531#1 315358247#0 315358243#1 315358244 379897806 815412608 129379920#1 315358246 129379922 315358252#0 315358252#1 129379925 129379925.20 315358242#0 315358242#1 315358242#2 315358242#3 315358242#4 315358251#0 315358251#1 386687235#1 386687235#1.84 42745545#0 737320746 737320746.8 737320747#1 737320747#2 737320747#3 737320747#4 737320747#4.146 28639688#1 28639688#2 28639688#3 24890429#2 726514445 -726514446 -203127020#4 -203127020#3 -203127020#2 -203127020#1 -203127020#0 -140684000#1 -140684000#1.23 380273341 -233673425#0 -266567307#1 -266567307#0 -30404124 30417892 266567308#0 32009827 266567303 266567294#0 31342064#0 31342064#2 305495773#0 305495773#2 266507551 266507552#0 202070430 202070429#0 202070429#1 202070429#2 202070429#4 202070429#5 202070429#8 202070429#11 -25597372 25640093#2 -25596974#1 -25596974#0 -41139095 -25596851#6 -25596851#5 -25596851#4"/>
    </vehicle>
    <vehicle id="7" depart="7.00">
        <route edges="213286564#0 25341073#4 42487766#1 42487766#2 201201940#0 201201940#3 128361093#1 449057060 449057060.18 148527692#0 148527692#1 128361102#0 128361102#1 285549250#0 201963533#1 201963533#4 201963533#5 201963533#6 128906555 136728347#0 136728347#1 136728347#2 136728347#3 136728347#4 233675413#0 233675413#1 233675413#2 233675413#3 233675413#6 233675413#7 233675413#8 233675413#9 139230366 27920078#0 27920078#1 104012178#0 104106813#1 -32124745 -285716192#1 -285716192#0 -32124744 -201089423#2 -201089423#1 -32999434#0 32999110 32999110.68 402600768#1 51857517#0 51857517#0.59 51857517#1 726514442#0 726514442#1 -266565295#6 -266565295#4 -266565295#3 -266565295#2 -266565295#1 -266565295#0 -266565299 -24977590#1 -233673425#0 -266567307#1 -266567307#0 -30404124 30417892 266567308#0 32009827 266567303 24971737#0 -814691989#1 -814691989#0 25955087#0 25955087#1 172497293#1"/>
    </vehicle>
    <vehicle id="8" depart="8.00">
        <route edges="-25626559#2 -25626559#0 -718828179#1 -718828179#1.15 151167747#0 151167747#0.13 39704923 266507553 gneE22 542650138.26 266507547#0 -718828178#1 -201789796 -201880159#3 -201880159#2 -201880159#1 -201880159#0 171007004 -201789798#1 -201789798#0 -201789799#2 201789799#2"/>
    </vehicle>
    <vehicle id="9" depart="9.00">
        <route edges="32061928#2 32061928#4 32061928#5 32061928#6 32061928#7 32061928#8 389840420#0 389840420#1 389840420#2 389840420#3 24972185#2 24972185#3 24972185#5 24972185#7 24972185#8 24972185#9 29048562#1 32009682 32009683#0 145069303#1 145069303#2 145069303#3 145069303#4 -26973015 gneE112 -gneE113 gneE118 51857519#0 161678034#0 161678034#1 161678034#2 164051429#1 4324827#1 203971381#0 4324820 26471940#1 -164051438#2 -164051438#1 -164051438#0 -164051438#0.17 -26471933 140834262#0 140834262#1 201953161#0 201953161#2 201953161#4 201953161#5 201953161#7 201953161#8 -115881043#11 -115881043#10"/>
    </vehicle>
    <vehicle id="10" depart="10.00">
        <route edges="314970098#1 -314970098#1 -314970098#0 -314970097 -297778952 -806941711#1 -806941711#0 -125002584 125002601 806941706 806941703 772913614 -139429268 -220013328 -148351766 -193806654 -148352067 -306240162#4 -306240162#2 -306240162#1 224251774#0 224251774#1 286646456#0 286646456#2 286646456#3 286646456#4 315358255#1 315358255#2 315358255#3 -315358257#2 -315358257#0 -201089420#1 -201089420#0 -201201945#11 -201201945#10 -201201945#9 -201201945#8 -201201945#7 -201201945#5 -201201945#4 -201201945#3 -201201945#2 -201201945#1 -201201945#1.91 201201950#1 201201950#2 201201950#3 201201950#4 201201950#5 202092676#1 386687235#1 386687235#1.84 42745545#0 737320746 737320746.8 737320747#1 737320747#2 737320747#3 737320747#4 737320747#4.146 28639688#1 28639688#2 28639688#3 -148050453#5 -148050453#4 148050447#1 25869404#4"/>
    </vehicle>
    <vehicle id="11" depart="11.00">
        <route edges="-36548854#1 -40496432#1 -39301798#1 334656212#0 -41567676#0 -42435519 -25689281#4 -25689281#3 -25689281#2 -25689281#1 -233673411#1 -233673411#0 -146973225#3 -146973225#2 -146973225#1 -146973225#1.38 4058147#0 4058147#1 726515357 450094703 718850688 450094714 gneE28 700272066.5 -582810637 -700272068 700272067#0 700272074#0 582810639#1 727164240 266885720 174533456 266507537 146973176#0 146973176#1 -195073416 195073423 32976751 306793670#0 306793670#1 146973241 -4826080 23125141 23125142 10941814 26224442 -620167544 -39603434 -146973218#5 -146973218#4 -146973218#3 -146973218#2 -146973218#1 -146973218#0 591898302#0 591898302#1 -230450350#23 -230450357#1 -230450361#3"/>
    </vehicle>
    <vehicle id="12" depart="12.00">
        <route edges="780108805 32201043 32201042 145069374 32124563#0 32124563#1 753083363 -749560273 -749560261 749560262 749560262.18 749560274#1 32350852#0 32350852#1 32350852#1.78 32350852#3 51857519#0 161678034#0 161678034#1 161678034#2 24970784#1 24970784#3 24970784#5 164051410#0 164051410#1 32199969#0 32199969#1 23009002#0 23009002#0.132 115082348 814691983#0 814691983#1 814691983#2 814691983#3 814691983#4 202070427#0 202070427#0.19 202070427#1 202070427#2 202070427#3 33280103#0 33280103#1 33280103#2 33280103#4 33280103#5 33280103#6 33280103#7 97304242#1 97304242#2 97304242#3 97304242#4 -39863084#5 -39863084#4 -39863084#3 -39863084#2 -39863084#1"/>
    </vehicle>
    <vehicle id="13" depart="13.00">
        <route edges="-173177780#2 -173177780#1 25341073#3 25341073#4 42487766#1 42487766#2 201201940#0 201201940#3 128361093#1 449057060 449057060.18 35926529 449057056 449057056.9 60931370 213252671#0 213252671#1 128361109#0 128361109#1 128361109#2 201238730 176550249#0 176550249#1 176550249#2 176550249#3 176550249#4 176550249#5 176550249#6 201201950#1 201201950#2 201201950#3 201201950#4 201201950#5 202092676#1 -315358251#1 -315358251#0 -315358242#4 -315358242#3 -315358242#2 -315358242#1 -315358242#0 -129379925 -129379925.33 -315358252#1 -315358252#0 -129379922 25117417#1 25117417#2 25117417#4 25117417#5 190281935#1 -190281937#1 -611319807#3 -611319807#2 -611319807#0 29213402 819521349 611319808#0 611319808#1 611319808#2 30093878 832481048 29213889 770768081 206411595#0 -31404770#1 -31404770#0 -192994888#2"/>
    </vehicle>
    <vehicle id="14" depart="14.00">
        <route edges="36792010#0 36792010#1 36792010#2 -146973236#7 -146973236#5 -146973236#4 -146973236#3 -146973236#2 -146973236#1 -146973236#0 -54154969#3 -54154969#2 -54154969#1 -54154969#0 -54154971 -40059576#1 -40059576#0 -202070435#14 -202070435#13 -202070435#12 -202070435#11 -202070435#10 -202070435#9 -202070435#8 -202070435#7 -202070435#6 -202070435#5 -202070435#4 -202070435#3 -202070435#2 -202070435#1 10941820 201880159#0 201880159#1 201880159#2 201880159#3 201789796 718828178#1 30320943 23622426 -726514454 -195073412#1 -195073412#0 195073415 266507536 266507535 266885714 146973156#0 146973156#1 39649528 161680744#1 266887586 266887587 266887592 266887591 266887593#1 266887593#2 266887593#3 20266190#1 20266190#2 -72883541#0 30054829#0 201926265#5 201926265#6 -20314044#2 -20314044#1 20314044#1"/>
    </vehicle>
    <vehicle id="15" depart="15.00">
        <route edges="315392062#0 315392062#1 315392062#2 315392062#3 315392062#4 201238718#0 201238718#1 201238718#1.33 201201945#1 201201945#2 201201945#3 201201945#4 201201945#5 201201945#7 201201945#8 201201945#9 201201945#10 201201945#11 201089420#0 201089420#1 315358257#0 315358257#2 -315358255#3 -315358255#2 -315358255#1 -315358255#0 -286646456#3 -286646456#2 -286646456#0 -224251774#1 -224251774#0 306240162#1 306240162#2 306240162#4 148352067 193806654 148351766 220013328 139429268 772913613 806941705 4396674 806941707 125002584 806941711#0 806941711#1 297778952 314970097 314970098#0 314970098#1 420153789 305397289#1 806941713 161783482#0 -320733903#3 -320733903#2 -320733903#1 82628965 -815004589 -32903546#2 35588519#0 35588519#1 -35588522#1 -35588522#0 -273123315 273123315"/>
    </vehicle>
    <vehicle id="16" depart="16.00">
        <route edges="140834257#1 -140834257#1 141058763 140834257#7 140834254#8 140834254#9 140834254#10 140834254#11 140834254#13 201956816#2 201956816#3 201956816#4 201956816#5 201956816#6 719015094#0 719015094#1 719015093 -39704293#4 -39704293#3 -39704293#2 -39704293#1 -39704293#0 700272077 582810642#0 582810642#1 582810642#2 582810642#3 582810642#4 700272076#0 700272074#0 582810639#1 727164240 266885720 174533456 266507537 266507538 266507539 266507539.83 4058141 266507543 266507532 327975022 39704920 151167740 266507555 266507554#0 266507557#0 266507557#1 266507557#2 718828179#0 25623125#0 25623125#1 25623125#2 25623125#3 25623126#1 25623126#2 816779852#0 816779852#1"/>
    </vehicle>
    <vehicle id="17" depart="17.00">
        <route edges="-425100467#5 425100439#9 425100439#10 591898302#3 -39603435#0 390565278#0 390565278#1 390565277#0 390565277#1 25623134#0 25623134#1 25623134#2 25623134#3 -26546533 26546530#1 390565281 26546601 39603434 620167544 -26224442 -10941814 146973256 39603437 32976551 39603438#0 39603438#1 306793669 32976752 28091398 327975022 39704920 151167740 266507555 266507554#0 266507557#0 266507557#1 266507557#2 172368742 172368742.256 542650763#0 542650763#1 542650763#1.87 726514450 391029008#0 391029008#1 391029008#2 391029008#3 4942575#0 4942575#1 4942575#2 4942575#3 4942575#4 31342349#0 31342349#1 31342349#2 31342349#3 4942408 54858973#0 765244915 4942407 29119849#0 29119849#1 29119850 29119850.76 gneE12 54169280#0 54169280#1 54169280#2 54169280#3 54169280#5 54169280#5.31 737320748#2 386687232#0 386687232#1 386687242#1 386687242#2 386687242#3 23166741#1 23166741#2 23166741#3 gneE65 23166741#5 201201953#1 201201953#2 gneE66 201201953#4 201201953#5 201201953#6 201201953#7 201201953#8 201201953#10 201201953#11 201201953#12 718850685#2 718850685#3 138002148 128361091 379795371 378946906 378946906.15 449057059 449057052 449057052.11 109483352#0 -201238725#5 -201238725#4 -201238725#3 -201238725#2 173184404#1 173184403#0 173184403#1"/>
    </vehicle>
    <vehicle id="18" depart="18.00">
        <route edges="333421782#1 -333421783#3 -726515363 726515362 -146973214#23 -146973214#22 -146973214#21 -146973214#18 -146973214#17 -146973214#13 -146973214#12 -146973214#11 -146973214#10 -146973214#9 -146973214#7 -146973214#6 -146973214#2 -146973214#1 -233673411#1 -233673411#0 -146973225#3 -146973225#2 -146973225#1 -146973225#1.38 4058147#0 4058147#1 726515357 450094703 718850688 450094714 380271165#0 161680736 28593900 111525329 266885722 266885721#0 161680744#0 161680744#1 266887586 266887587 266887592 266887591 266887593#1 266887593#2 266887593#3 266887593#4 266887593#6 266887588#0 201926268#1 266887589#0 266887589#1 266887589#2 266887589#3 589179144 816754679 4268816#0 718481094#0 718481096#0 718481096#1 718481096#2 718481096#3 164051398 25188982#1 25192758 90587322#1 -10425611#1 -10425611#0 -164051429#2 -161678034#2 -161678034#1 -161678034#0 gneE114 gneE114.33 -gneE112 26973015 -145069303#4 -145069303#3 -145069303#2 -145069303#1 -32009683#0 -32009682 -29048562#1 -24972185#9 -24972185#8 -24972185#7 -24972185#5 -24972185#3 -24972185#2 -389840420#3 -389840420#2 150746364#1 150746364#2 150746364#4 213328560#0"/>
    </vehicle>
    <vehicle id="19" depart="19.00">
        <route edges="389565213#0 -61318930#0 -726514451#3 -726514451#2 -726514451#1 -726514451#1.22 726514452#0 726514452#1 41425835#0 41425835#0.246 151167747#0 151167747#0.13 549032836 39704924 39704922 266507540 266507540.73 266507546 266507536 266507535 266885714 146973156#0 146973156#1 39649528 161680744#1 266887586 266887587 266887592 42508865#1 61909838#1 61909838#2 61909838#3 61909838#4 -200742227#32 -200742227#31 -200742227#30 200743817#0 -200743817#8 200743817#8"/>
    </vehicle>
    <vehicle id="20" depart="20.00">
        <route edges="25331328#1 25331328#2 25331328#3 25331328#4 215333131#1 217450846 217450845#0 217450845#1 -215333129#2 -215333129#1 -215333129#0 -164859338#1 24754876#7 24754876#8 24754876#9 24754876#10 24754876#11 24754876#12 201238725#1 201238725#2 201238725#3 201238725#4 201238725#5 746700169 128361099 379795373 379795373.16 379795369 449057060 449057060.18 148527692#0 148527692#1 128361102#0 128361102#1 285549250#0 201963533#1 201963533#4 201963533#5 201963533#6 128906555 136728347#0 136728347#1 136728347#2 136728347#3 136728347#4 233675413#0 233675413#1 233675413#2 233675413#3 233675413#6 233675413#7 233675413#8 233675413#9 139230366 27920078#0 27920078#1 104012178#0 104106813#1 -32124745 -285716192#1 -285716192#0 -32124744 -201089423#2 -201089423#1 -32999434#0 32999110 32999110.68 402600768#1 51857517#0 51857517#0.59 51857517#1 816133972 32978638#0 32978638#1 32978638#2 29458097#1 31343381#0 51856495#1 29458096#1 108239938 108310253 32230724#1 104236368#1 108310254 108688795 77912233 77912241#0 -800890645 144659492#3 144659492#4 144659492#5 -144659492#5"/>
    </vehicle>
    <vehicle id="21" depart="21.00">
        <route edges="-25801550#4 -25801550#3 -25801550#2 -25801550#1 -25801550#0 -150746347#1 -150746347#0 -39860603 -39860602 -144655546#2 -144655546#1 -144655546#0 -51745097#1 -51745097#0 -51745097#0.38 -30399316#5 -30399316#4 -30399316#2 -30399316#1 -30399316#0 -542727960#0 -54858974#0 -152077572#2 -152077572#1 -152077572#0 -29238188#3 -29238188#2 -29238188#1 -29238188#0 -29238188#0.32 -137463478#3 -137463478#2 -137463478#1 -137463478#1.16 25796398#0 25796398#1 31894763#0 137463475#0 137463475#1 137463475#2 116765457#1 28132014#0 28132014#1 28132014#2 42745460 42745461#1 54154922#1 26071515#0 26071515#1 4324820 164051399 201956817 718481098 556434727#0 542630099 354967545#0 354967545#1 141058765 718481093#0 gneE134 172700927#1 -48742425#3 -48742425#2 -48742425#1 -48742425#0 -746483006#6 -746483006#5 -746483006#4 -746483006#3 -746483006#2 -746483006#1 -205182378#9 -205182378#8 -205182378#7 -205182378#6 -205182378#5 -205182378#4 -205182378#3 -205182378#2 -205182378#1 -205182378#0 -32530108#5 -32530108#4 -32530108#3 -32530108#2 -32530108#1 -32530108#0 32530113#0 -32530113#0"/>
    </vehicle>
    <vehicle id="22" depart="22.00">
        <route edges="-166639772#1 -166638360#2 -166638360#1 -166638360#0 32140179#1 342059250#0 342059250#1 32140180 25705905 27196044#0 27196044#1 27196044#2 27196044#3 27196044#4 27196044#5 27196044#6 27196044#7 27196044#8 31021477#0 31021477#1 31021477#2 -39861708#1 -39861708#0 -39861707 -97304242#13 -97304242#12 -97304242#11 -97304242#10 -97304242#9 -97304242#8 -97304242#6 -97304242#4 -97304242#3 -97304242#2 -97304242#1 -33280103#7 -33280103#6 -33280103#5 -33280103#4 -33280103#2 -33280103#1 -33280103#0 33280102#0 33280102#1 33280102#2 33280102#3 257907860 814691984#0 814691984#1 305390325#0 305390325#2 305390325#3 266567304#0 64464420 25955089 64464430 814691990 814691990.7 -24991571 -24991571.15 -24991573 -11014139#1 -32009683#0 -32009682 -29048562#1 -24972185#9 -24972185#8 -24972185#7 -24972185#5 -24972185#3 -24972185#2 -389840420#3 -389840420#2 -389840420#1 -389840420#0 -32061928#8 -32061928#7 -32061928#6 -32061928#5 -32061928#4 -32061928#2 -32061928#1 -32061928#0 -749560260 -389831363 18909063#1 18909063#2 -826551069#1 -826551069#0 -36689751#1 -36689751#0 10425609#0 10425609#0.33 201956819#1 201956819#1.66 173169611#1 173169611#2 173169611#3 173169611#4 173169611#5 173169612 26729232#0 -26729232#0"/>
    </vehicle>
    <vehicle id="23" depart="23.00">
        <route edges="-181221346 26677416#7 40888351#5 40888351#6 -129379925.33 -315358252#1 -315358252#0 -129379922 25117417#1 25117417#2 25117417#4 25117417#5 190281935#1 -190281937#1 -611319807#3 -611319807#2 -611319807#0 29213402 819521349 611319808#0 611319808#1 611319808#2 30093878 832481048 29213889 770768081 206411595#0 206411595#1 -31404767#1 -31404767#0 -31470281"/>
    </vehicle>
    <vehicle id="24" depart="24.00">
        <route edges="202952242#1 201933880#1 201933880#2 201933880#3 26339468#0 26339468#1 26339468#2 -26814848#2 26339473#1 -26339478#1 -26416601#0 -174597970#1 -174597970#0 -28577490#1 -28577490#0 -675757784#4 -675757784#3 391208993#0 391208993#1 391208993#2 391208993#3 391208993#4 391208993#5 -391208987#1 -391208987#0 23291898#0 23291898#1 23291898#2 23291898#3 23291898#4 23291898#5 156041643#0 156041643#1 156041643#2 155847370 -23183649#0 54606419#0 54606419#1 54606419#2 54606419#3 54606432#0 54606432#1 23206058#0 23206058#1 23206058#2 51890699#0 -51890699#0"/>
    </vehicle>
    <vehicle id="25" depart="25.00">
        <route edges="-41199133 15057616#1 41199134 25543980#0 25543980#1 25543980#2 25543980#3 25543980#5 25543980#6 25543980#7 25543980#8 25543980#9 25543980#10 -266607801#1 -266607801#0 -233673410#8 -233673410#7 -233673410#6 -233673410#5 -233673410#3 -233673410#2 -233673410#1 -233673410#0 -201243230#1 -233673420#0 -266607798 -266607796 -207091132#4 -207091132#3 -207091132#1 -207091132#0 -233673413#1 -233673413#0 -29027936#1 -168249926#0 -390835794#2 -390835794#1 -390835794#0 -116765451#2 -116765451#1 gneE132 -200949176#0 -266607792#7 -266607792#5 -266607792#4 -266607792#3 -266607792#2 -266607792#1 -266607792#0 -266607803#2 -266607803#1 -266607804#1 -266607804#0 -32923863#5 -32923863#4 -32923863#3 -32923863#2 -32923863#1 -32923863#0 -31363129#1 -31363129#0 -58295043 151167768 718481092 816287457#0 816287496 815517012 61940356 172515808 61940355 816623824 816623827 102818928#0 102818928#1 389831364#1 389831364#1.51 542617943 28418764 825445496#0 825445496#1 825445496#1.47 749560274#1 32350852#0 32350852#1 32350852#1.78 32350852#3 gneE113 -gneE112 26973015 -145069303#4 -145069303#3 -145069303#2 -145069303#1 -32009683#0 -32009682 -29048562#1 24537982#1 24537982#2 24537982#3 24537982#4 266565302 24977590#1 266565299 266565295#0 266565295#1 148050453#0 148050453#1 148050453#3 148050447#1 -25869404#1"/>
    </vehicle>
    <vehicle id="26" depart="26.00">
        <route edges="-28133179 28133179 39863084#1 39863084#2 39863084#3 39863084#4 39863084#5 -97304242#4 -97304242#3 -97304242#2 -97304242#1 -33280103#7 -33280103#6 -33280103#5 -33280103#4 -33280103#2 -33280103#1 -33280103#0 33280102#0 33280102#1 33280102#2 33280102#3 257907860 814691984#0 814691984#1 305390325#0 305390325#2 305390325#3 266567304#0 64464420 25955089 64464430 32009826#0 31342305 30404124 266567307#0 266567307#1 233673425#0 380273342 165520704#0 752837945#0 752837946"/>
    </vehicle>
    <vehicle id="27" depart="27.00">
        <route edges="20975954#0 -20975954#0 20975942#1 20975942#2 20975942#3 -20975950#1 -20975950#0 -37282688#1 -37282688#0 -103718186 -201278214#0 -29458645 131118468#0 131118468#0.32 719015101 719015101.12 305390335 201278218#0 201278218#0.62 816287496 815517012 61940356 172515808 61940355 816623824 816623837#0 816623837#1 -816623834#1 816623833#1 816623833#2 816623833#4 124812856#0 124812856#0.30 201956821#1 201956821#1.76 201963537#1 201963537#1.83 104010475#1 104012170 104010393#0 202070434#0 202070434#1 202070434#2 202070434#2.42 -139230366 -233675413#9 -233675413#8 -233675413#7 -233675413#6 22690205#0 22690205#2 22690205#3 -23436553#3 -218647947#1 -218647947#0 -204588664#2 204588664#2"/>
    </vehicle>
    <vehicle id="28" depart="28.00">
        <route edges="-230450350#14 -230450350#13 230450360#0 230450360#1 230450360#2 230450360#3 230450360#4 -25623135#0 390565277#1 25623134#0 25623134#1 25623134#2 25623134#3 -26546533 26546530#1 390565281 26546601 39603434 620167544 -26224442 -10941814 146973256 39603437 32976551 39603438#0 39603438#1 306793669 32976752 28091398 327975022 39704920 151167740 266507555 266507554#0 266507557#0 266507557#1 266507557#2 172368742 172368742.256 542650763#0 542650763#1 542650763#1.87 726514450 391029008#0 391029008#1 391029008#2 391029008#3 4942575#0 4942575#1 4942575#2 4942575#3 4942575#4 31342349#0 31342349#1 31342349#2 31342349#3 4942408 54858973#0 765244915 4942407 29119849#0 29119849#1 29119850 29119850.76 gneE12 54169280#0 54169280#1 54169280#2 54169280#3 54169280#5 54169280#5.31 737320748#2 386687232#0 386687232#1 386687242#1 386687242#2 386687242#3 23166741#1 23166741#2 23166741#3 gneE65 23166741#5 201201945#1 201201945#2 201201945#3 201201945#4 201201945#5 201201945#7 201201945#8 201201945#9 201201945#10 201201945#11 201089420#0 201089420#1 315358257#0 315358257#2 -315358255#3 -315358255#2 -315358255#1 -315358255#0 -286646456#3 -286646456#2 -286646456#0 -224251774#1 -224251774#0 306240162#1 306240162#2 306240162#4 148352067 193806654 148351766 220013328 139429268 772913613 806941705 4396674 806941707 125002584 806941711#0 806941711#1 297778952 314970097 314970098#0 314970098#1 420153789 305397289#1 806941713 161783482#0 -320733903#3 -320733903#2 -320733903#1 -320733901#2 -320733901#1 -320733901#0 -320733900#9 25804126 272255519#0 272255519#1 272255519#2 272255519#3"/>
    </vehicle>
    <vehicle id="29" depart="29.00">
        <route edges="-224892361#8 -224892361#7 -224892361#6 -224892361#5 -224892361#4 -224892361#3 -224892361#2 -224892361#1 -224892361#0 286646456#2 286646456#3 286646456#4 315358255#1 315358255#2 315358255#3 -612075153#0 399835085#0 399835085#1 399835085#2 -612075158#1"/>
    </vehicle>
    <vehicle id="30" depart="30.00">
        <route edges="83299779#0 -83299779#0 -26451327#1 -24972185#2 -32978638#2 -32978638#1 -32978638#0 32021112 726514443#0 726514443#1 726514443#2.43 -814691991 -315358253#1 -315358253#0 -315358248#1 -315358248#0 -315358245 -202092675 -815412622 386687242#1 386687242#2 386687242#3 23166741#1 23166741#2 23166741#3"/>
    </vehicle>
    <vehicle id="31" depart="31.00">
        <route edges="152038427 25895966#5 25895966#6 25895966#7 -29238188#2 -29238188#1 -29238188#0 -29238188#0.32 -137463478#3 -137463478#2 -137463478#1 -137463478#1.16 25796398#0 25796398#1 305495773#0 305495773#2 266507551 266507552#0 202070430 202070429#0 202070429#1 202070429#2 202070429#4 202070429#5 202070429#8 202070429#11 -25597372 25640093#2 -25596974#1 -25596974#0 -41139095 -25596851#6 -25596851#5 -25596851#4 -25596851#3 -25596851#2 25596851#2"/>
    </vehicle>
    <vehicle id="32" depart="32.00">
        <route edges="354967514#1 354967514#2 816754682 816754680 -589179144 -266887589#3 -266887589#2 -266887589#1 -266887589#0 -201926268#1 -266887588#0 -266887593#6 -266887593#4 -266887593#3 -266887593#2 -266887593#1 -266887591 111525330#0 111525330#1 350320331#0 350320331#1 266885723#0 161680739 27453586#0 450094713 450094712 718850689 450094709 450094710 146973225#1 146973225#1.37 146973225#2 146973225#3 233673411#0 233673411#1 146973214#1 146973214#2 146973214#6 146973214#7 146973214#9 146973214#10 146973214#11 146973214#12 146973214#13 35342847#1 35342847#2 -329108798#2 -329108798#1 -50192291#0 309370389#0"/>
    </vehicle>
    <vehicle id="33" depart="33.00">